<?xml version="1.0" encoding="UTF-8"?>

<!-- generated on 2025-10-15T20:39:25.281576+05:30 by Eclipse SUMO netconvert v1_24_0+1450-4defc8454b3
<netconvertConfiguration xmlns:xsi="http://www.w3.org/2001/XMLSchema-instance" xsi:noNamespaceSchemaLocation="http://sumo.dlr.de/xsd/netconvertConfiguration.xsd">

    <input>
        <node-files value="nodes.nod.xml"/>
        <edge-files value="edges.edg.xml"/>
        <connection-files value="connections.con.xml"/>
    </input>

    <output>
        <output-file value="network.net.xml"/>
    </output>

</netconvertConfiguration>
-->

<net version="1.20" junctionCornerDetail="5" limitTurnSpeed="5.50" xmlns:xsi="http://www.w3.org/2001/XMLSchema-instance" xsi:noNamespaceSchemaLocation="http://sumo.dlr.de/xsd/net_file.xsd">

    <location netOffset="500.00,500.00" convBoundary="0.00,0.00,1000.00,1000.00" origBoundary="-500.00,-500.00,500.00,500.00" projParameter="!"/>

    <edge id=":E_0" function="internal">
        <lane id=":E_0_0" index="0" speed="5.58" length="9.35" shape="1000.00,495.20 1003.60,497.60 1004.80,500.00 1003.60,502.40 1000.00,504.80"/>
        <lane id=":E_0_1" index="1" speed="3.65" length="9.35" shape="1000.00,498.40 1001.20,499.20 1001.60,500.00 1001.20,500.80 1000.00,501.60"/>
    </edge>
    <edge id=":N_0" function="internal">
        <lane id=":N_0_0" index="0" speed="5.58" length="9.35" shape="504.80,1000.00 502.40,1003.60 500.00,1004.80 497.60,1003.60 495.20,1000.00"/>
        <lane id=":N_0_1" index="1" speed="3.65" length="9.35" shape="501.60,1000.00 500.80,1001.20 500.00,1001.60 499.20,1001.20 498.40,1000.00"/>
    </edge>
    <edge id=":S_0" function="internal">
        <lane id=":S_0_0" index="0" speed="5.58" length="9.35" shape="495.20,0.00 497.60,-3.60 500.00,-4.80 502.40,-3.60 504.80,0.00"/>
        <lane id=":S_0_1" index="1" speed="3.65" length="9.35" shape="498.40,0.00 499.20,-1.20 500.00,-1.60 500.80,-1.20 501.60,0.00"/>
    </edge>
    <edge id=":W_0" function="internal">
        <lane id=":W_0_0" index="0" speed="5.58" length="9.35" shape="0.00,504.80 -3.60,502.40 -4.80,500.00 -3.60,497.60 0.00,495.20"/>
        <lane id=":W_0_1" index="1" speed="3.65" length="9.35" shape="0.00,501.60 -1.20,500.80 -1.60,500.00 -1.20,499.20 0.00,498.40"/>
    </edge>

    <edge id="E2W" from="E" to="W" priority="2">
        <lane id="E2W_0" index="0" speed="13.90" length="1000.00" shape="1000.00,504.80 0.00,504.80"/>
        <lane id="E2W_1" index="1" speed="13.90" length="1000.00" shape="1000.00,501.60 0.00,501.60"/>
    </edge>
    <edge id="N2S" from="N" to="S" priority="2">
        <lane id="N2S_0" index="0" speed="13.90" length="1000.00" shape="495.20,1000.00 495.20,0.00"/>
        <lane id="N2S_1" index="1" speed="13.90" length="1000.00" shape="498.40,1000.00 498.40,0.00"/>
    </edge>
    <edge id="S2N" from="S" to="N" priority="2">
        <lane id="S2N_0" index="0" speed="13.90" length="1000.00" shape="504.80,0.00 504.80,1000.00"/>
        <lane id="S2N_1" index="1" speed="13.90" length="1000.00" shape="501.60,0.00 501.60,1000.00"/>
    </edge>
    <edge id="W2E" from="W" to="E" priority="2">
        <lane id="W2E_0" index="0" speed="13.90" length="1000.00" shape="0.00,495.20 1000.00,495.20"/>
        <lane id="W2E_1" index="1" speed="13.90" length="1000.00" shape="0.00,498.40 1000.00,498.40"/>
    </edge>

    <tlLogic id="N" type="static" programID="0" offset="0">
        <phase duration="82" state="GG"/>
        <phase duration="3"  state="yy"/>
        <phase duration="5"  state="rr"/>
    </tlLogic>

    <junction id="E" type="priority" x="1000.00" y="500.00" incLanes="W2E_0 W2E_1" intLanes=":E_0_0 :E_0_1" shape="1000.00,500.00 1000.00,493.60 1000.00,500.00">
        <request index="0" response="00" foes="00" cont="0"/>
        <request index="1" response="00" foes="00" cont="0"/>
    </junction>
    <junction id="N" type="traffic_light" x="500.00" y="1000.00" incLanes="S2N_0 S2N_1" intLanes=":N_0_0 :N_0_1" shape="500.00,1000.00 506.40,1000.00 500.00,1000.00">
        <request index="0" response="00" foes="00" cont="0"/>
        <request index="1" response="00" foes="00" cont="0"/>
    </junction>
    <junction id="S" type="priority" x="500.00" y="0.00" incLanes="N2S_0 N2S_1" intLanes=":S_0_0 :S_0_1" shape="500.00,0.00 493.60,0.00 500.00,0.00">
        <request index="0" response="00" foes="00" cont="0"/>
        <request index="1" response="00" foes="00" cont="0"/>
    </junction>
    <junction id="W" type="priority" x="0.00" y="500.00" incLanes="E2W_0 E2W_1" intLanes=":W_0_0 :W_0_1" shape="0.00,500.00 0.00,506.40 0.00,500.00">
        <request index="0" response="00" foes="00" cont="0"/>
        <request index="1" response="00" foes="00" cont="0"/>
    </junction>

    <connection from="E2W" to="W2E" fromLane="0" toLane="0" via=":W_0_0" dir="t" state="M"/>
    <connection from="E2W" to="W2E" fromLane="1" toLane="1" via=":W_0_1" dir="t" state="M"/>
    <connection from="N2S" to="S2N" fromLane="0" toLane="0" via=":S_0_0" dir="t" state="M"/>
    <connection from="N2S" to="S2N" fromLane="1" toLane="1" via=":S_0_1" dir="t" state="M"/>
    <connection from="S2N" to="N2S" fromLane="0" toLane="0" via=":N_0_0" tl="N" linkIndex="0" dir="t" state="O"/>
    <connection from="S2N" to="N2S" fromLane="1" toLane="1" via=":N_0_1" tl="N" linkIndex="1" dir="t" state="O"/>
    <connection from="W2E" to="E2W" fromLane="0" toLane="0" via=":E_0_0" dir="t" state="M"/>
    <connection from="W2E" to="E2W" fromLane="1" toLane="1" via=":E_0_1" dir="t" state="M"/>

    <connection from=":E_0" to="E2W" fromLane="0" toLane="0" dir="t" state="M"/>
    <connection from=":E_0" to="E2W" fromLane="1" toLane="1" dir="t" state="M"/>
    <connection from=":N_0" to="N2S" fromLane="0" toLane="0" dir="t" state="M"/>
    <connection from=":N_0" to="N2S" fromLane="1" toLane="1" dir="t" state="M"/>
    <connection from=":S_0" to="S2N" fromLane="0" toLane="0" dir="t" state="M"/>
    <connection from=":S_0" to="S2N" fromLane="1" toLane="1" dir="t" state="M"/>
    <connection from=":W_0" to="W2E" fromLane="0" toLane="0" dir="t" state="M"/>
    <connection from=":W_0" to="W2E" fromLane="1" toLane="1" dir="t" state="M"/>

</net>
