<?xml version="1.0" encoding="UTF-8"?>
<routes>
    <vType id="car" accel="2.6" decel="4.5" length="5" maxSpeed="13.9" sigma="0.5"/>

    <route id="north_south" edges="N2C C2S"/>
    <route id="south_north" edges="S2C C2N"/>
    <route id="east_west" edges="E2C C2W"/>
    <route id="west_east" edges="W2C C2E"/>


    <flow id="flow1" route="north_south" begin="0" end="3600" vehsPerHour="600" type="car"/>
    <flow id="flow2" route="east_west" begin="0" end="3600" vehsPerHour="600" type="car"/>
    <flow id="flow3" route="south_north" begin="0" end="3600" vehsPerHour="600" type="car"/>
    <flow id="flow4" route="west_east" begin="0" end="3600" vehsPerHour="600" type="car"/>
</routes>
